AquaCrop 6.0 (March 2017) - Output created on (date) : 4/14/2020   at (time) : 12:09:36 PM

    RunNr     Day1   Month1    Year1     Rain      ETo       GD     CO2      Irri   Infilt   Runoff    Drain   Upflow        E     E/Ex       Tr      TrW   Tr/Trx    SaltIn   SaltOut    SaltUp  SaltProf     Cycle   SaltStr  FertStr  WeedStr  TempStr   ExpStr   StoStr  BioMass  Brelative   HI     Yield     WPet     DayN   MonthN    YearN
                                           mm       mm    °C.day    ppm        mm       mm       mm       mm       mm       mm        %       mm       mm        %    ton/ha    ton/ha    ton/ha    ton/ha      days       %        %        %        %        %        %    ton/ha        %       %    ton/ha    kg/m3
   Tot(1)        5        7     1988    345.2    383.3   1996.0   351.57      0.0    345.2      0.0     61.8      0.0    115.8       66    209.2    209.4       94     0.000     0.000     0.000     0.000      115        0        0        0        0       38        9    12.314       69     44.6    5.489     1.69        1       11     1988  proyecto_fecha4.PRM
   Tot(2)        5        7     1989    187.3    456.1   2050.9   352.12      0.0    187.3      0.0      0.0      0.0    168.2       45     76.3     76.9       65     0.000     0.000     0.000     0.000      115        0        0        0        0       83       33     3.706       21     42.7    1.583     0.65        1       11     1989  proyecto_fecha4.PRM
   Tot(3)        5        7     1990    465.1    417.8   1886.3   354.39      0.0    465.1      0.0     83.8      0.0     90.1       82    308.6    307.7       95     0.000     0.000     0.000     0.000      115        0        0        0        0       28        4    16.384       91     45.0    7.373     1.85        1       11     1990  proyecto_fecha4.PRM
   Tot(4)        5        7     1991    254.1    437.0   2005.6   355.61      0.0    254.1      0.0     25.9      0.0    175.1       46     71.4     72.0       82     0.000     0.000     0.000     0.000      115        0        0        0        0       80       21     3.657       20     45.0    1.647     0.67        1       11     1991  proyecto_fecha4.PRM
   Tot(5)        5        7     1992    352.5    404.6   1913.5   356.45      0.0    352.5      0.0     53.2      0.0     96.8       83    247.4    247.1       81     0.000     0.000     0.000     0.000      115        0        0        0        0       45       17    13.475       75     44.3    5.973     1.74        1       11     1992  proyecto_fecha4.PRM
   Tot(6)        5        7     1993    186.6    406.0   2038.2   356.10      0.0    186.6      0.0      2.5      0.0    138.1       46     95.0     95.2       74     0.000     0.000     0.000     0.000      115        0        0        0        0       73       25     5.235       29     43.9    2.300     0.99        1       11     1993  proyecto_fecha4.PRM
   Tot(7)        5        7     1994    103.0    454.2   2091.9   358.83      0.0    103.0      0.0      0.0      0.0    122.6       27     27.0     27.3       62     0.000     0.000     0.000     0.000       99        0        0        0        0       93       40     1.269        7     -9.9    0.000     0.00        1       11     1994  proyecto_fecha4.PRM
   Tot(8)        5        7     1995    393.3    439.3   2035.3   360.82      0.0    393.3      0.0     56.4      0.0    143.0       64    223.3    222.3       95     0.000     0.000     0.000     0.000      115        0        0        0        0       44       10    11.894       65     45.0    5.349     1.46        1       11     1995  proyecto_fecha4.PRM
   Tot(9)        5        7     1996    227.3    457.0   2040.9   362.61      0.0    227.3      0.0      0.0      0.0    191.1       52     62.1     63.0       59     0.000     0.000     0.000     0.000       86        0        0        0        0       82       39     3.023       17      2.7    0.082     0.04        1       11     1996  proyecto_fecha4.PRM
  Tot(10)        5        7     1997    324.3    459.5   2054.3   363.73      0.0    324.3      0.0     10.9      0.0    136.9       58    207.6    206.8       84     0.000     0.000     0.000     0.000      115        0        0        0        0       66       14    10.409       57     45.4    4.729     1.37        1       11     1997  proyecto_fecha4.PRM
  Tot(11)        5        7     1998    684.2    432.7   2005.0   366.70      0.0    659.1      0.0    212.2      0.0    112.7       88    284.4    284.0       86     0.000     0.000     0.000     0.000      115        0        0        0        0       47       10    14.995       81     45.5    6.824     1.72        1       11     1998  proyecto_fecha4.PRM
  Tot(12)        5        7     1999    482.0    426.8   1925.0   368.38      0.0    502.9      0.0    129.5      0.0    141.0       71    221.5    221.9       88     0.000     0.000     0.000     0.000      115        0        0        0        0       53       11    12.084       65     45.0    5.438     1.50        1       11     1999  proyecto_fecha4.PRM
  Tot(13)        5        7     2000    556.0    411.2   1895.6   369.55      0.0    556.0      0.0    179.7      0.0     87.6       92    329.5    329.8       99     0.000     0.000     0.000     0.000      115        0        0        0        0        1        2    18.418       99     44.9    8.264     1.98        1       11     2000  proyecto_fecha4.PRM
  Tot(14)        5        7     2001    316.8    431.3   2057.1   371.14      0.0    316.8      0.0      0.0      0.0    113.6       72    229.2    228.8       78     0.000     0.000     0.000     0.000      115        0        0        0        0       58       18    12.149       65     44.6    5.419     1.58        1       11     2001  proyecto_fecha4.PRM
  Tot(15)        5        7     2002    463.0    412.5   1981.1   373.28      0.0    463.0      0.0     80.5      0.0     93.0       96    286.5    286.3       86     0.000     0.000     0.000     0.000      115        0        0        0        0       39       11    15.597       83     45.0    7.019     1.85        1       11     2002  proyecto_fecha4.PRM
  Tot(16)        5        7     2003    259.8    442.8   2070.5   375.80      0.0    259.8      0.0      0.0      0.0    154.0       76    157.0    157.6       63     0.000     0.000     0.000     0.000      115        0        0        0        0       73       33     8.245       44     42.9    3.540     1.14        1       11     2003  proyecto_fecha4.PRM
  Tot(17)        5        7     2004    482.1    452.5   2001.7   377.52      0.0    482.1      0.0     70.5      0.0    107.3       81    316.3    316.1       94     0.000     0.000     0.000     0.000      115        0        0        0        0       35        6    16.236       86     45.0    7.306     1.72        1       11     2004  proyecto_fecha4.PRM
  Tot(18)        5        7     2005    486.0    412.3   1953.6   379.80      0.0    486.0      0.0     88.4      0.0    103.6       93    293.5    293.4       92     0.000     0.000     0.000     0.000      115        0        0        0        0       38        7    16.691       87     45.0    7.511     1.89        1       11     2005  proyecto_fecha4.PRM
  Tot(19)        5        7     2006    287.1    442.7   2068.1   381.90      0.0    287.1      0.0      4.0      0.0    122.9       60    194.6    194.5       77     0.000     0.000     0.000     0.000      115        0        0        0        0       55       24    10.421       54     44.6    4.652     1.47        1       11     2006  proyecto_fecha4.PRM
  Tot(20)        5        7     2007    626.2    407.1   1932.2   383.79      0.0    626.2      0.0    199.7      0.0     84.6       90    324.3    324.1       99     0.000     0.000     0.000     0.000      115        0        0        0        0       17        1    18.737       97     45.0    8.432     2.06        1       11     2007  proyecto_fecha4.PRM
  Tot(21)        5        7     2008    895.5    382.8   1824.2   385.60      0.0    895.1      0.0    468.0      0.0     73.9       98    323.2    323.6      100     0.000     0.000     0.000     0.000      115        0        0        0        0        0        0    19.316      100     45.0    8.692     2.19        1       11     2008  proyecto_fecha4.PRM
  Tot(22)        5        7     2009    430.7    393.2   1965.5   387.43      0.0    430.7      0.0     45.9      0.0     73.7       92    296.5    296.3       91     0.000     0.000     0.000     0.000      115        0        0        0        0        5        8    17.611       91     44.8    7.891     2.13        1       11     2009  proyecto_fecha4.PRM
  Tot(23)        5        7     2010    881.9    387.2   1816.3   389.90      0.0    881.9      0.0    492.2      0.0     81.1      100    318.9    319.1      100     0.000     0.000     0.000     0.000      115        0        0        0        0        0        0    19.488      100     45.0    8.770     2.19        1       11     2010  proyecto_fecha4.PRM
  Tot(24)        5        7     2011    783.8    396.4   1837.6   391.65      0.0    783.8      0.0    351.1      0.0     81.5       99    329.5    329.4      100     0.000     0.000     0.000     0.000      115        0        0        0        0        0        0    19.557      100     45.0    8.801     2.14        1       11     2011  proyecto_fecha4.PRM
  Tot(25)        5        7     2012    546.9    404.0   1924.6   393.85      0.0    546.9      0.0    122.5      0.0     84.6       89    317.0    316.6       99     0.000     0.000     0.000     0.000      115        0        0        0        0       16        1    18.836       96     45.0    8.476     2.11        1       11     2012  proyecto_fecha4.PRM
  Tot(26)        5        7     2013    611.9    399.0   1941.1   396.52      0.0    611.9      0.0    203.0      0.0     90.1       82    291.1    291.0       96     0.000     0.000     0.000     0.000      115        0        0        0        0       28        4    17.675       90     45.0    7.954     2.09        1       11     2013  proyecto_fecha4.PRM
  Tot(27)        5        7     2014    595.9    405.0   1960.6   398.65      0.0    595.9      0.0    201.1      0.0    118.3       70    237.6    238.0       94     0.000     0.000     0.000     0.000      115        0        0        0        0       38        7    14.711       74     45.0    6.620     1.86        1       11     2014  proyecto_fecha4.PRM
  Tot(28)        5        7     2015    444.2    421.8   2043.0   400.83      0.0    444.2      0.0     60.1      0.0     98.7       92    283.9    283.6       87     0.000     0.000     0.000     0.000      115        0        0        0        0       41       10    16.574       83     45.0    7.459     1.95        1       11     2015  proyecto_fecha4.PRM
  Tot(29)        5        7     2016    675.2    397.7   1923.6   404.21      0.0    675.2      0.0    237.7      0.0     76.0       93    328.0    328.4      100     0.000     0.000     0.000     0.000      115        0        0        0        0        3        0    19.925       99     45.0    8.966     2.22        1       11     2016  proyecto_fecha4.PRM
  Tot(30)        5        7     2017    793.4    386.4   1878.0   406.21      0.0    793.4      0.0    356.2      0.0     74.9       97    322.9    322.8      100     0.000     0.000     0.000     0.000      115        0        0        0        0        0        0    20.113      100     45.0    9.051     2.28        1       11     2017  proyecto_fecha4.PRM
  Tot(31)        5        7     2018    644.8    388.0   1920.3   408.21      0.0    640.4      0.0    244.5      0.0     84.3       79    291.4    291.2      100     0.000     0.000     0.000     0.000      115        0        0        0        0       15        1    18.936       94     45.0    8.521     2.27        1       11     2018  proyecto_fecha4.PRM
  Tot(32)        5        7     2019    481.3    437.8   2029.7   410.21      0.0    481.3      0.0     67.5      0.0    125.9       75    247.0    247.1       87     0.000     0.000     0.000     0.000      115        0        0        0        0       52       12    13.938       69     45.0    6.272     1.68        1       11     2019  proyecto_fecha4.PRM
