AquaCrop 6.0 (March 2017) - Output created on (date) : 4/14/2020   at (time) : 12:09:34 PM

    RunNr     Day1   Month1    Year1     Rain      ETo       GD     CO2      Irri   Infilt   Runoff    Drain   Upflow        E     E/Ex       Tr      TrW   Tr/Trx    SaltIn   SaltOut    SaltUp  SaltProf     Cycle   SaltStr  FertStr  WeedStr  TempStr   ExpStr   StoStr  BioMass  Brelative   HI     Yield     WPet     DayN   MonthN    YearN
                                           mm       mm    °C.day    ppm        mm       mm       mm       mm       mm       mm        %       mm       mm        %    ton/ha    ton/ha    ton/ha    ton/ha      days       %        %        %        %        %        %    ton/ha        %       %    ton/ha    kg/m3
   Tot(1)       10        6     1988    387.4    400.7   2006.7   351.57      0.0    387.4      0.0     36.3      0.0    106.7       76    239.2    239.5       87     0.000     0.000     0.000     0.000      115        0        0        0        0       46       11    13.320       75     45.3    6.035     1.74        7       10     1988  proyecto_fecha2.PRM
   Tot(2)       10        6     1989    225.9    460.2   2055.6   352.12      0.0    225.9      0.0      7.9      0.0    202.9       52     60.7     61.4       63     0.000     0.000     0.000     0.000      115        0        0        0        0       81       37     2.861       16     44.2    1.264     0.48        7       10     1989  proyecto_fecha2.PRM
   Tot(3)       10        6     1990    574.9    410.3   1879.2   354.39      0.0    574.9      0.0    156.6      0.0     83.5       93    320.3    319.1       95     0.000     0.000     0.000     0.000      115        0        0        0        0        6        3    17.127       96     45.0    7.703     1.91        7       10     1990  proyecto_fecha2.PRM
   Tot(4)       10        6     1991    314.6    439.3   2031.5   355.61      0.0    314.6      0.0     59.9      0.0    150.8       76    117.0    118.3       59     0.000     0.000     0.000     0.000       80        0        0        0        0       58       40     5.906       33     -9.9    0.000     0.00        7       10     1991  proyecto_fecha2.PRM
   Tot(5)       10        6     1992    531.2    403.3   1911.2   356.45      0.0    531.2      0.0    141.7      0.0     90.1       98    281.2    280.0       87     0.000     0.000     0.000     0.000      115        0        0        0        0        0       10    15.668       87     45.0    7.046     1.90        7       10     1992  proyecto_fecha2.PRM
   Tot(6)       10        6     1993    233.7    409.5   2030.3   356.10      0.0    233.7      0.0     10.5      0.0    137.0       75    123.7    124.6       56     0.000     0.000     0.000     0.000      115        0        0        0        0       69       38     6.582       37     43.2    2.844     1.09        7       10     1993  proyecto_fecha2.PRM
   Tot(7)       10        6     1994     90.5    468.7   2096.1   358.83      0.0     90.5      0.0      0.0      0.0    111.1       24     25.6     26.0       62     0.000     0.000     0.000     0.000       84        0        0        0        0       94       41     1.190        7     -9.9    0.000     0.00        7       10     1994  proyecto_fecha2.PRM
   Tot(8)       10        6     1995    380.0    452.7   2062.4   360.82      0.0    380.0      0.0     49.8      0.0    194.6       61    136.8    136.2       85     0.000     0.000     0.000     0.000      115        0        0        0        0       69       19     6.991       38     45.0    3.146     0.95        7       10     1995  proyecto_fecha2.PRM
   Tot(9)       10        6     1996    208.7    472.1   2062.1   362.61      0.0    208.7      0.0      6.8      0.0    139.1       54    119.9    120.4       57     0.000     0.000     0.000     0.000      102        0        0        0        0       71       38     6.036       33     23.4    1.412     0.60        7       10     1996  proyecto_fecha2.PRM
  Tot(10)       10        6     1997    362.9    470.2   2069.5   363.73      0.0    362.9      0.0      1.9      0.0    131.4       80    213.0    212.1       66     0.000     0.000     0.000     0.000      115        0        0        0        0       61       26    10.431       57     44.2    4.609     1.34        7       10     1997  proyecto_fecha2.PRM
  Tot(11)       10        6     1998    461.7    470.4   2052.6   366.70      0.0    461.7      0.0     39.7      0.0    101.2       84    316.2    316.3       86     0.000     0.000     0.000     0.000      115        0        0        0        0       42       11    15.479       84     45.0    6.959     1.67        7       10     1998  proyecto_fecha2.PRM
  Tot(12)       10        6     1999    519.3    441.1   1977.8   368.38      0.0    519.3      0.0    102.2      0.0    104.1       93    273.9    273.6       79     0.000     0.000     0.000     0.000      115        0        0        0        0       48       15    14.430       78     44.8    6.461     1.71        7       10     1999  proyecto_fecha2.PRM
  Tot(13)       10        6     2000    659.0    421.2   1925.0   369.55      0.0    659.0      0.0    186.4      0.0     85.1       90    344.0    344.1      100     0.000     0.000     0.000     0.000      115        0        0        0        0        0        0    18.594      100     45.1    8.390     1.96        7       10     2000  proyecto_fecha2.PRM
  Tot(14)       10        6     2001    263.4    448.3   2073.8   371.14      0.0    263.4      0.0      0.0      0.0    180.5       54    114.5    114.9       79     0.000     0.000     0.000     0.000      115        0        0        0        0       79       19     6.002       32     44.9    2.697     0.91        7       10     2001  proyecto_fecha2.PRM
  Tot(15)       10        6     2002    495.6    422.8   2005.2   373.28      0.0    495.6      0.0     84.4      0.0     90.8       94    295.8    295.3       87     0.000     0.000     0.000     0.000      115        0        0        0        0        9       10    16.409       87     44.7    7.332     1.90        7       10     2002  proyecto_fecha2.PRM
  Tot(16)       10        6     2003    299.4    450.1   2057.1   375.80      0.0    299.4      0.0     29.5      0.0    170.2       75    153.4    154.0       62     0.000     0.000     0.000     0.000      115        0        0        0        0       74       34     7.950       42     41.8    3.326     1.03        7       10     2003  proyecto_fecha2.PRM
  Tot(17)       10        6     2004    490.2    449.9   2006.3   377.52      0.0    490.2      0.0     66.6      0.0     95.6       89    318.6    318.0       88     0.000     0.000     0.000     0.000      115        0        0        0        0       39        9    16.232       85     45.5    7.381     1.78        7       10     2004  proyecto_fecha2.PRM
  Tot(18)       10        6     2005    601.3    426.4   1974.2   379.80      0.0    601.3      0.0    144.0      0.0     93.1       98    318.8    318.9       92     0.000     0.000     0.000     0.000      115        0        0        0        0        0        7    17.521       92     45.0    7.892     1.92        7       10     2005  proyecto_fecha2.PRM
  Tot(19)       10        6     2006    304.2    447.3   2060.5   381.90      0.0    304.2      0.0     27.9      0.0    163.9       75    131.8    132.7       62     0.000     0.000     0.000     0.000      115        0        0        0        0       66       27     7.115       37     45.0    3.200     1.08        7       10     2006  proyecto_fecha2.PRM
  Tot(20)       10        6     2007    530.9    422.6   1978.2   383.79      0.0    530.9      0.0     69.7      0.0     97.9       98    323.3    322.5       96     0.000     0.000     0.000     0.000      115        0        0        0        0       34        3    18.205       95     45.0    8.192     1.95        7       10     2007  proyecto_fecha2.PRM
  Tot(21)       10        6     2008    834.8    390.0   1860.3   385.60      0.0    831.6      0.0    407.1      0.0     78.9       83    307.9    307.7      100     0.000     0.000     0.000     0.000      115        0        0        0        0        8        0    18.626       96     45.0    8.382     2.17        7       10     2008  proyecto_fecha2.PRM
  Tot(22)       10        6     2009    579.1    398.9   1957.3   387.43      0.0    579.1      0.0    194.6      0.0     90.9       99    312.1    312.2       98     0.000     0.000     0.000     0.000      115        0        0        0        0        0        2    18.975       98     45.2    8.580     2.13        7       10     2009  proyecto_fecha2.PRM
  Tot(23)       10        6     2010   1009.8    388.6   1846.8   389.90      0.0   1009.8      0.0    582.9      0.0     83.0       99    317.0    316.6      100     0.000     0.000     0.000     0.000      115        0        0        0        0        0        0    19.488      100     45.0    8.770     2.19        7       10     2010  proyecto_fecha2.PRM
  Tot(24)       10        6     2011    808.5    398.4   1874.8   391.65      0.0    808.5      0.0    362.5      0.0     81.6       98    327.3    327.4      100     0.000     0.000     0.000     0.000      115        0        0        0        0        0        0    19.557      100     45.0    8.801     2.15        7       10     2011  proyecto_fecha2.PRM
  Tot(25)       10        6     2012    504.7    405.6   1946.8   393.85      0.0    504.7      0.0     79.6      0.0     87.2       86    302.2    302.4       96     0.000     0.000     0.000     0.000      115        0        0        0        0       29        3    18.126       92     45.0    8.157     2.09        7       10     2012  proyecto_fecha2.PRM
  Tot(26)       10        6     2013    647.5    398.5   1974.8   396.52      0.0    647.5      0.0    212.1      0.0     79.0       98    304.8    304.8       93     0.000     0.000     0.000     0.000      115        0        0        0        0       25        5    18.362       93     45.0    8.263     2.15        7       10     2013  proyecto_fecha2.PRM
  Tot(27)       10        6     2014    564.4    402.2   2002.6   398.65      0.0    564.4      0.0    187.9      0.0     93.6       96    260.7    260.9       83     0.000     0.000     0.000     0.000      115        0        0        0        0       48       14    15.645       79     45.0    7.040     1.99        7       10     2014  proyecto_fecha2.PRM
  Tot(28)       10        6     2015    426.4    421.9   2049.3   400.83      0.0    426.4      0.0     61.7      0.0    102.9       88    251.8    251.4       81     0.000     0.000     0.000     0.000      115        0        0        0        0       51       15    14.879       75     44.8    6.671     1.88        7       10     2015  proyecto_fecha2.PRM
  Tot(29)       10        6     2016    621.7    396.8   1954.2   404.21      0.0    621.7      0.0    165.3      0.0     82.3       97    321.7    322.0      100     0.000     0.000     0.000     0.000      115        0        0        0        0        4        0    20.021      100     45.0    9.010     2.23        7       10     2016  proyecto_fecha2.PRM
  Tot(30)       10        6     2017    850.5    384.9   1903.9   406.21      0.0    850.5      0.0    407.1      0.0     77.4       99    316.9    316.6      100     0.000     0.000     0.000     0.000      115        0        0        0        0        0        0    20.113      100     45.0    9.051     2.30        7       10     2017  proyecto_fecha2.PRM
  Tot(31)       10        6     2018    588.9    387.7   1935.6   408.21      0.0    582.0      0.0    153.8      0.0     89.5       94    288.5    289.0       95     0.000     0.000     0.000     0.000      115        0        0        0        0       31        4    18.546       92     45.0    8.345     2.21        7       10     2018  proyecto_fecha2.PRM
  Tot(32)       10        6     2019    420.6    447.2   2076.2   410.21      0.0    423.7      0.0     25.3      0.0    115.7       88    241.7    241.4       74     0.000     0.000     0.000     0.000      115        0        0        0        0       61       20    13.634       67     44.6    6.085     1.70        7       10     2019  proyecto_fecha2.PRM
