AquaCrop 6.0 (March 2017) - Output created on (date) : 4/14/2020   at (time) : 12:09:33 PM

    RunNr     Day1   Month1    Year1     Rain      ETo       GD     CO2      Irri   Infilt   Runoff    Drain   Upflow        E     E/Ex       Tr      TrW   Tr/Trx    SaltIn   SaltOut    SaltUp  SaltProf     Cycle   SaltStr  FertStr  WeedStr  TempStr   ExpStr   StoStr  BioMass  Brelative   HI     Yield     WPet     DayN   MonthN    YearN
                                           mm       mm    °C.day    ppm        mm       mm       mm       mm       mm       mm        %       mm       mm        %    ton/ha    ton/ha    ton/ha    ton/ha      days       %        %        %        %        %        %    ton/ha        %       %    ton/ha    kg/m3
   Tot(1)       25        5     1988    373.0    414.8   2026.6   351.57      0.0    373.0      0.0      8.6      0.0    129.4       77    211.4    210.2       80     0.000     0.000     0.000     0.000      115        0        0        0        0       62       16    11.418       64     45.1    5.144     1.51       21        9     1988  proyecto_fecha1.PRM
   Tot(2)       25        5     1989    203.1    465.0   2061.4   352.12      0.0    203.1      0.0      0.0      0.0    193.9       46     47.9     49.1       63     0.000     0.000     0.000     0.000      115        0        0        0        0       87       35     2.248       13      2.9    0.066     0.03       21        9     1989  proyecto_fecha1.PRM
   Tot(3)       25        5     1990    512.9    414.7   1899.9   354.39      0.0    512.9      0.0    122.4      0.0     86.2       86    315.6    314.4       96     0.000     0.000     0.000     0.000      115        0        0        0        0        5        3    16.901       94     45.2    7.644     1.90       21        9     1990  proyecto_fecha1.PRM
   Tot(4)       25        5     1991    302.1    449.0   2049.0   355.61      0.0    302.1      0.0     38.7      0.0    127.7       71    161.0    162.3       65     0.000     0.000     0.000     0.000       97        0        0        0        0       50       35     8.186       46     15.9    1.301     0.50       21        9     1991  proyecto_fecha1.PRM
   Tot(5)       25        5     1992    490.3    416.0   1946.9   356.45      0.0    490.3      0.0    126.2      0.0     95.6       89    289.1    287.7       89     0.000     0.000     0.000     0.000      115        0        0        0        0        6        9    15.887       88     44.2    7.027     1.83       21        9     1992  proyecto_fecha1.PRM
   Tot(6)       25        5     1993    275.9    413.8   2034.6   356.10      0.0    275.9      0.0     42.6      0.0     98.2       71    160.0    160.7       60     0.000     0.000     0.000     0.000      115        0        0        0        0       57       36     8.533       47     41.5    3.543     1.37       21        9     1993  proyecto_fecha1.PRM
   Tot(7)       25        5     1994    110.1    470.3   2101.8   358.83      0.0    110.1      0.0      0.0      0.0    116.1       28     45.7     46.4       60     0.000     0.000     0.000     0.000       71        0        0        0        0       82       41     2.180       12     -9.9    0.000     0.00       21        9     1994  proyecto_fecha1.PRM
   Tot(8)       25        5     1995    322.6    468.2   2087.5   360.82      0.0    322.6      0.0     42.2      0.0    231.9       53     50.8     50.7       74     0.000     0.000     0.000     0.000      115        0        0        0        0       93       22     2.445       13     45.3    1.107     0.39       21        9     1995  proyecto_fecha1.PRM
   Tot(9)       25        5     1996    221.0    484.2   2059.6   362.61      0.0    221.0      0.0     24.6      0.0    143.4       47    115.6    115.6       59     0.000     0.000     0.000     0.000      115        0        0        0        0       74       36     5.676       31     40.6    2.304     0.89       21        9     1996  proyecto_fecha1.PRM
  Tot(10)       25        5     1997    348.5    478.3   2089.2   363.73      0.0    348.5      0.0     25.4      0.0    105.3       80    240.2    238.9       67     0.000     0.000     0.000     0.000      115        0        0        0        0       49       28    11.676       64     43.1    5.031     1.46       21        9     1997  proyecto_fecha1.PRM
  Tot(11)       25        5     1998    463.5    474.3   2070.1   366.70      0.0    463.5      0.0     15.7      0.0    106.6       87    321.6    321.7       87     0.000     0.000     0.000     0.000      115        0        0        0        0       18       11    15.477       84     44.7    6.917     1.62       21        9     1998  proyecto_fecha1.PRM
  Tot(12)       25        5     1999    368.0    464.9   2013.1   368.38      0.0    368.0      0.0     16.9      0.0    133.9       67    219.1    219.2       77     0.000     0.000     0.000     0.000      115        0        0        0        0       56       19    11.218       60     44.0    4.932     1.40       21        9     1999  proyecto_fecha1.PRM
  Tot(13)       25        5     2000    588.8    430.4   1952.0   369.55      0.0    588.8      0.0    109.1      0.0     89.6       89    344.6    344.4      100     0.000     0.000     0.000     0.000      115        0        0        0        0        4        0    18.437       99     45.0    8.297     1.91       21        9     2000  proyecto_fecha1.PRM
  Tot(14)       25        5     2001    261.5    446.8   2077.1   371.14      0.0    261.5      0.0      1.3      0.0    152.2       61    142.1    142.7       65     0.000     0.000     0.000     0.000      115        0        0        0        0       72       31     7.465       40     43.7    3.262     1.11       21        9     2001  proyecto_fecha1.PRM
  Tot(15)       25        5     2002    573.2    425.4   2011.1   373.28      0.0    573.2      0.0    151.0      0.0     95.9       99    305.7    305.7       90     0.000     0.000     0.000     0.000      115        0        0        0        0        1        9    16.822       89     44.9    7.555     1.88       21        9     2002  proyecto_fecha1.PRM
  Tot(16)       25        5     2003    420.7    450.8   2053.5   375.80      0.0    420.7      0.0    112.8      0.0    103.7       96    261.0    261.5       73     0.000     0.000     0.000     0.000      115        0        0        0        0       53       25    13.612       72     43.1    5.868     1.61       21        9     2003  proyecto_fecha1.PRM
  Tot(17)       25        5     2004    470.1    446.1   2014.4   377.52      0.0    470.1      0.0     41.4      0.0     92.9       94    312.5    311.7       87     0.000     0.000     0.000     0.000      115        0        0        0        0       41        9    16.282       86     45.2    7.364     1.82       21        9     2004  proyecto_fecha1.PRM
  Tot(18)       25        5     2005    532.3    435.2   1999.4   379.80      0.0    532.3      0.0    119.9      0.0     93.5       93    327.3    327.2       94     0.000     0.000     0.000     0.000      115        0        0        0        0        1        5    17.779       93     45.1    8.023     1.91       21        9     2005  proyecto_fecha1.PRM
  Tot(19)       25        5     2006    402.7    453.7   2061.1   381.90      0.0    402.7      0.0     64.7      0.0    127.1       79    188.8    189.7       67     0.000     0.000     0.000     0.000      115        0        0        0        0       50       28    10.275       54     42.3    4.347     1.38       21        9     2006  proyecto_fecha1.PRM
  Tot(20)       25        5     2007    576.6    425.4   1995.8   383.79      0.0    576.6      0.0    122.8      0.0     95.0       98    329.3    328.4       96     0.000     0.000     0.000     0.000      115        0        0        0        0        9        3    18.505       96     45.2    8.372     1.97       21        9     2007  proyecto_fecha1.PRM
  Tot(21)       25        5     2008    874.5    388.8   1876.1   385.60      0.0    871.3      0.0    425.4      0.0     83.3       96    313.7    313.9      100     0.000     0.000     0.000     0.000      115        0        0        0        0        1        0    19.309      100     45.0    8.689     2.19       21        9     2008  proyecto_fecha1.PRM
  Tot(22)       25        5     2009    612.9    408.1   1968.6   387.43      0.0    612.9      0.0    218.5      0.0     95.8       95    318.5    318.1      100     0.000     0.000     0.000     0.000      115        0        0        0        0        1        0    19.275       99     45.0    8.665     2.09       21        9     2009  proyecto_fecha1.PRM
  Tot(23)       25        5     2010   1082.0    396.9   1879.9   389.90      0.0   1078.0      0.0    630.6      0.0     83.7       95    319.6    319.7      100     0.000     0.000     0.000     0.000      115        0        0        0        0        0        0    19.488      100     45.0    8.770     2.17       21        9     2010  proyecto_fecha1.PRM
  Tot(24)       25        5     2011    828.9    401.1   1892.3   391.65      0.0    828.9      0.0    382.9      0.0     87.8       97    322.2    322.1      100     0.000     0.000     0.000     0.000      115        0        0        0        0        0        0    19.557      100     45.0    8.801     2.15       21        9     2011  proyecto_fecha1.PRM
  Tot(25)       25        5     2012    503.0    405.2   1960.4   393.85      0.0    503.0      0.0     90.0      0.0     82.9       97    310.9    311.0       94     0.000     0.000     0.000     0.000      115        0        0        0        0       17        4    18.498       94     45.0    8.331     2.12       21        9     2012  proyecto_fecha1.PRM
  Tot(26)       25        5     2013    640.9    396.5   1999.7   396.52      0.0    640.9      0.0    210.2      0.0     83.3       98    300.8    301.2       93     0.000     0.000     0.000     0.000      115        0        0        0        0        0        5    18.472       94     45.4    8.386     2.18       21        9     2013  proyecto_fecha1.PRM
  Tot(27)       25        5     2014    519.7    404.6   2022.8   398.65      0.0    519.7      0.0    126.6      0.0     83.9       87    261.0    260.7       83     0.000     0.000     0.000     0.000      115        0        0        0        0       23       13    15.990       81     45.1    7.207     2.09       21        9     2014  proyecto_fecha1.PRM
  Tot(28)       25        5     2015    407.7    420.2   2056.8   400.83      0.0    407.7      0.0     57.6      0.0     83.1       87    274.9    274.9       82     0.000     0.000     0.000     0.000      115        0        0        0        0       14       14    16.419       82     44.1    7.245     2.02       21        9     2015  proyecto_fecha1.PRM
  Tot(29)       25        5     2016    698.5    399.8   1976.6   404.21      0.0    698.5      0.0    252.5      0.0     93.6       99    316.6    316.4      100     0.000     0.000     0.000     0.000      115        0        0        0        0        0        0    20.034      100     45.0    9.016     2.20       21        9     2016  proyecto_fecha1.PRM
  Tot(30)       25        5     2017    787.1    390.0   1935.0   406.21      0.0    787.1      0.0    342.2      0.0     87.0       97    309.0    309.1      100     0.000     0.000     0.000     0.000      115        0        0        0        0        0        0    20.078      100     45.0    9.035     2.28       21        9     2017  proyecto_fecha1.PRM
  Tot(31)       25        5     2018    526.2    391.0   1940.1   408.21      0.0    526.2      0.0    139.8      0.0     82.3       99    303.6    304.2       95     0.000     0.000     0.000     0.000      115        0        0        0        0        1        3    19.312       96     45.0    8.699     2.25       21        9     2018  proyecto_fecha1.PRM
  Tot(32)       25        5     2019    351.8    439.3   2087.1   410.21      0.0    351.8      0.0     10.8      0.0    102.9       93    248.4    247.9       74     0.000     0.000     0.000     0.000      115        0        0        0        0       52       22    14.326       71     43.6    6.250     1.78       21        9     2019  proyecto_fecha1.PRM
