AquaCrop 6.0 (March 2017) - Output created on (date) : 4/14/2020   at (time) : 12:09:35 PM

    RunNr     Day1   Month1    Year1     Rain      ETo       GD     CO2      Irri   Infilt   Runoff    Drain   Upflow        E     E/Ex       Tr      TrW   Tr/Trx    SaltIn   SaltOut    SaltUp  SaltProf     Cycle   SaltStr  FertStr  WeedStr  TempStr   ExpStr   StoStr  BioMass  Brelative   HI     Yield     WPet     DayN   MonthN    YearN
                                           mm       mm    °C.day    ppm        mm       mm       mm       mm       mm       mm        %       mm       mm        %    ton/ha    ton/ha    ton/ha    ton/ha      days       %        %        %        %        %        %    ton/ha        %       %    ton/ha    kg/m3
   Tot(1)       25        6     1988    371.5    392.3   2000.2   351.57      0.0    371.5      0.0     63.4      0.0    110.3       71    230.9    231.6       91     0.000     0.000     0.000     0.000      115        0        0        0        0       39       11    13.275       75     44.9    5.963     1.75       22       10     1988  proyecto_fecha3.PRM
   Tot(2)       25        6     1989    209.2    456.8   2051.3   352.12      0.0    209.2      0.0      0.8      0.0    183.9       49     76.6     76.8       64     0.000     0.000     0.000     0.000      115        0        0        0        0       83       35     3.701       21     43.2    1.600     0.61       22       10     1989  proyecto_fecha3.PRM
   Tot(3)       25        6     1990    524.3    409.5   1882.3   354.39      0.0    524.3      0.0    110.8      0.0     84.8       94    317.8    316.6       95     0.000     0.000     0.000     0.000      115        0        0        0        0       26        4    16.910       94     45.6    7.709     1.92       22       10     1990  proyecto_fecha3.PRM
   Tot(4)       25        6     1991    344.4    434.2   2007.9   355.61      0.0    344.4      0.0     68.9      0.0    188.7       65     62.1     63.3       53     0.000     0.000     0.000     0.000       64        0        0        0        0       68       45     3.045       17     -9.9    0.000     0.00       22       10     1991  proyecto_fecha3.PRM
   Tot(5)       25        6     1992    408.0    405.0   1903.8   356.45      0.0    408.0      0.0     88.0      0.0     88.7       91    268.0    267.1       83     0.000     0.000     0.000     0.000      115        0        0        0        0       42       13    14.771       82     45.2    6.671     1.87       22       10     1992  proyecto_fecha3.PRM
   Tot(6)       25        6     1993    189.1    404.7   2030.3   356.10      0.0    189.1      0.0      0.0      0.0    143.3       48     92.5     93.1       68     0.000     0.000     0.000     0.000      115        0        0        0        0       77       32     5.022       28     44.4    2.228     0.94       22       10     1993  proyecto_fecha3.PRM
   Tot(7)       25        6     1994    101.3    463.7   2095.7   358.83      0.0    101.3      0.0      0.0      0.0    120.2       26     26.2     26.5       63     0.000     0.000     0.000     0.000       86        0        0        0        0       93       41     1.218        7     -9.9    0.000     0.00       22       10     1994  proyecto_fecha3.PRM
   Tot(8)       25        6     1995    384.1    445.7   2038.0   360.82      0.0    384.1      0.0     55.4      0.0    160.8       58    178.0    176.9       94     0.000     0.000     0.000     0.000      115        0        0        0        0       57       11     9.483       52     45.3    4.297     1.27       22       10     1995  proyecto_fecha3.PRM
   Tot(9)       25        6     1996    286.3    454.0   2039.0   362.61      0.0    286.3      0.0     24.7      0.0    172.1       63     96.8     97.9       56     0.000     0.000     0.000     0.000       88        0        0        0        0       75       40     4.857       27      4.2    0.203     0.10       22       10     1996  proyecto_fecha3.PRM
  Tot(10)       25        6     1997    359.9    458.7   2049.5   363.73      0.0    359.9      0.0     17.1      0.0    147.0       68    204.1    202.9       77     0.000     0.000     0.000     0.000      115        0        0        0        0       67       19    10.067       55     45.0    4.535     1.29       22       10     1997  proyecto_fecha3.PRM
  Tot(11)       25        6     1998    487.5    453.0   2025.1   366.70      0.0    487.5      0.0     56.9      0.0    107.3       91    302.7    302.8       85     0.000     0.000     0.000     0.000      115        0        0        0        0       44       11    15.325       83     44.9    6.887     1.68       22       10     1998  proyecto_fecha3.PRM
  Tot(12)       25        6     1999    525.0    430.8   1947.0   368.38      0.0    525.0      0.0    120.9      0.0    113.6       87    257.2    257.0       81     0.000     0.000     0.000     0.000      115        0        0        0        0       51       15    13.711       74     45.0    6.170     1.66       22       10     1999  proyecto_fecha3.PRM
  Tot(13)       25        6     2000    622.0    414.1   1901.0   369.55      0.0    622.0      0.0    200.3      0.0     89.6       95    336.8    337.3      100     0.000     0.000     0.000     0.000      115        0        0        0        0        0        0    18.609      100     45.0    8.374     1.96       22       10     2000  proyecto_fecha3.PRM
  Tot(14)       25        6     2001    296.7    441.2   2073.8   371.14      0.0    296.7      0.0      0.0      0.0    140.8       62    181.4    181.2       77     0.000     0.000     0.000     0.000      115        0        0        0        0       68       19     9.529       51     44.6    4.253     1.32       22       10     2001  proyecto_fecha3.PRM
  Tot(15)       25        6     2002    478.3    418.6   1991.5   373.28      0.0    478.3      0.0     95.2      0.0     90.5       98    292.7    292.7       86     0.000     0.000     0.000     0.000      115        0        0        0        0       38       10    15.991       85     45.0    7.196     1.88       22       10     2002  proyecto_fecha3.PRM
  Tot(16)       25        6     2003    249.1    451.3   2068.2   375.80      0.0    249.1      0.0      0.0      0.0    186.9       63    113.6    114.4       64     0.000     0.000     0.000     0.000      115        0        0        0        0       79       32     5.897       31     42.4    2.499     0.83       22       10     2003  proyecto_fecha3.PRM
  Tot(17)       25        6     2004    476.5    456.7   2011.3   377.52      0.0    476.5      0.0     40.9      0.0    105.6       79    310.6    309.5       92     0.000     0.000     0.000     0.000      115        0        0        0        0       37        7    15.781       83     45.0    7.102     1.71       22       10     2004  proyecto_fecha3.PRM
  Tot(18)       25        6     2005    542.9    420.0   1963.3   379.80      0.0    542.9      0.0    120.6      0.0     96.5       98    306.9    307.0       91     0.000     0.000     0.000     0.000      115        0        0        0        0       31        7    17.208       90     45.1    7.768     1.93       22       10     2005  proyecto_fecha3.PRM
  Tot(19)       25        6     2006    282.5    445.3   2068.5   381.90      0.0    282.5      0.0      6.1      0.0    143.5       59    164.2    164.8       75     0.000     0.000     0.000     0.000      115        0        0        0        0       64       25     8.718       45     44.5    3.880     1.26       22       10     2006  proyecto_fecha3.PRM
  Tot(20)       25        6     2007    637.2    408.6   1955.6   383.79      0.0    637.2      0.0    180.8      0.0     87.0       87    319.9    319.6       98     0.000     0.000     0.000     0.000      115        0        0        0        0       25        1    18.368       95     45.0    8.266     2.03       22       10     2007  proyecto_fecha3.PRM
  Tot(21)       25        6     2008   1018.0    380.8   1831.5   385.60      0.0   1013.8      0.0    571.5      0.0     70.0      100    323.8    323.9      100     0.000     0.000     0.000     0.000      115        0        0        0        0        0        0    19.316      100     45.0    8.692     2.21       22       10     2008  proyecto_fecha3.PRM
  Tot(22)       25        6     2009    398.4    395.3   1960.7   387.43      0.0    398.4      0.0     48.3      0.0     79.0       95    306.7    306.6       95     0.000     0.000     0.000     0.000      115        0        0        0        0        5        5    18.392       95     45.3    8.327     2.16       22       10     2009  proyecto_fecha3.PRM
  Tot(23)       25        6     2010    931.0    392.8   1825.4   389.90      0.0    931.0      0.0    524.8      0.0     84.0       98    319.0    318.4      100     0.000     0.000     0.000     0.000      115        0        0        0        0        0        0    19.488      100     45.0    8.770     2.18       22       10     2010  proyecto_fecha3.PRM
  Tot(24)       25        6     2011    861.8    397.0   1849.9   391.65      0.0    861.8      0.0    406.9      0.0     81.4      100    330.1    330.7      100     0.000     0.000     0.000     0.000      115        0        0        0        0        0        0    19.557      100     45.0    8.801     2.14       22       10     2011  proyecto_fecha3.PRM
  Tot(25)       25        6     2012    552.8    405.2   1938.2   393.85      0.0    552.8      0.0    101.4      0.0     85.4       93    318.7    318.3       98     0.000     0.000     0.000     0.000      115        0        0        0        0       18        2    19.047       97     45.0    8.571     2.12       22       10     2012  proyecto_fecha3.PRM
  Tot(26)       25        6     2013    618.4    406.6   1957.8   396.52      0.0    618.4      0.0    196.7      0.0     90.8       93    301.3    301.5       94     0.000     0.000     0.000     0.000      115        0        0        0        0       29        5    18.142       92     45.0    8.164     2.08       22       10     2013  proyecto_fecha3.PRM
  Tot(27)       25        6     2014    591.6    405.4   1978.5   398.65      0.0    591.6      0.0    192.0      0.0    120.7       78    237.5    237.5       89     0.000     0.000     0.000     0.000      115        0        0        0        0       45       11    14.503       73     45.0    6.526     1.82       22       10     2014  proyecto_fecha3.PRM
  Tot(28)       25        6     2015    442.6    420.5   2043.9   400.83      0.0    442.6      0.0     37.1      0.0     95.8       87    274.9    274.8       85     0.000     0.000     0.000     0.000      115        0        0        0        0       45       11    16.152       81     45.0    7.269     1.96       22       10     2015  proyecto_fecha3.PRM
  Tot(29)       25        6     2016    667.7    394.6   1939.0   404.21      0.0    667.7      0.0    219.9      0.0     76.3       97    327.4    327.3      100     0.000     0.000     0.000     0.000      115        0        0        0        0        4        0    19.982      100     45.0    8.992     2.23       22       10     2016  proyecto_fecha3.PRM
  Tot(30)       25        6     2017    781.3    387.0   1891.8   406.21      0.0    781.3      0.0    332.8      0.0     74.5       98    323.1    323.4      100     0.000     0.000     0.000     0.000      115        0        0        0        0        0        0    20.113      100     45.0    9.051     2.28       22       10     2017  proyecto_fecha3.PRM
  Tot(31)       25        6     2018    653.3    387.0   1921.8   408.21      0.0    649.3      0.0    244.3      0.0     87.3       77    280.2    280.3       98     0.000     0.000     0.000     0.000      115        0        0        0        0       25        2    18.102       90     45.1    8.155     2.22       22       10     2018  proyecto_fecha3.PRM
  Tot(32)       25        6     2019    460.3    443.6   2047.3   410.21      0.0    460.3      0.0     62.3      0.0    127.6       75    234.0    233.9       81     0.000     0.000     0.000     0.000      115        0        0        0        0       61       16    13.125       65     45.1    5.923     1.64       22       10     2019  proyecto_fecha3.PRM
